grid_simulations/tests/Result_no_control/output_voltage_15.csv
# Result_no_control/output_voltage_15.csv run at 2000-01-01 15:00:00 EST on 963 nodes
node_name,voltA_mag,voltA_angle,voltB_mag,voltB_angle,voltC_mag,voltC_angle
SourceBus,6668.395609,0.000000,6668.395609,4.188790,6668.395609,2.094395
Bus1,248.589720,-0.556330,248.332126,3.636950,249.539386,1.548610
Bus2,248.161889,-0.555866,247.955805,3.636880,249.372159,1.548772
Bus3,248.117040,-0.555817,247.916354,3.636873,249.354628,1.548789
Bus4,248.075024,-0.555772,247.879393,3.636866,249.338205,1.548805
Bus5,248.038392,-0.555732,247.847169,3.636860,249.323886,1.548819
Bus6,247.980684,-0.555669,247.796404,3.636850,249.301328,1.548841
Bus7,244.053356,-0.551326,244.339560,3.636198,247.765510,1.550343
Bus8,243.877567,-0.551128,244.184735,3.636168,247.696736,1.550410
Bus9,243.731261,-0.550963,244.055872,3.636143,247.639495,1.550467
Bus10,243.602872,-0.550819,243.942785,3.636122,247.589262,1.550516
Bus11,243.507073,-0.550710,243.858400,3.636106,247.551780,1.550553
Bus12,243.417143,-0.550609,243.779184,3.636090,247.516593,1.550588
Bus13,243.361846,-0.550546,243.730473,3.636081,247.494956,1.550609
Bus14,243.224185,-0.550391,243.609206,3.636058,247.441092,1.550662
Bus15,242.109234,-0.549122,242.626840,3.635868,247.004768,1.551094
Bus16,242.109234,-0.549122,242.626840,3.635868,247.004768,1.551094
Bus17,240.757693,-0.547568,241.435565,3.635635,246.475714,1.551619
Bus18,242.109234,-0.549122,242.626840,3.635868,247.004768,1.551094
Bus19,240.664720,-0.547460,241.353598,3.635619,246.439314,1.551655
Bus20,242.109234,-0.549122,242.626840,3.635868,247.004768,1.551094
Bus21,240.560326,-0.547340,241.261560,3.635601,246.398442,1.551696
Bus22,242.109234,-0.549122,242.626840,3.635868,247.004768,1.551094
Bus23,240.390359,-0.547143,241.111702,3.635572,246.331895,1.551762
Bus24,242.109234,-0.549122,242.626840,3.635868,247.004768,1.551094
Bus25,240.081171,-0.546783,240.839076,3.635518,246.210832,1.551883
Bus26,242.109234,-0.549122,242.626840,3.635868,247.004768,1.551094
Bus27,239.638983,-0.546329,240.840448,3.635492,246.215683,1.551900
Bus28,236.723117,-0.542706,237.371084,3.635788,244.522153,1.552768
Bus29,242.109234,-0.549122,242.626840,3.635868,247.004768,1.551094
Bus30,239.578094,-0.546266,240.840638,3.635488,246.216351,1.551903
Bus31,239.579645,-0.546268,240.840633,3.635488,246.216334,1.551903
Bus32,235.829825,-0.541601,236.447852,3.635861,244.072632,1.553006
Bus33,242.109234,-0.549122,242.626840,3.635868,247.004768,1.551094
Bus34,239.438657,-0.546122,240.841070,3.635480,246.217881,1.551908
Bus35,239.577636,-0.546265,240.840639,3.635488,246.216356,1.551903
Bus36,235.834632,-0.541583,236.012403,3.636316,244.073872,1.552980
Bus37,232.988864,-0.538749,234.076625,3.635678,242.674802,1.554495
Bus38,242.109234,-0.549122,242.626840,3.635868,247.004768,1.551094
Bus39,239.574746,-0.546262,240.840648,3.635488,246.216388,1.551903
Bus40,235.834800,-0.541582,235.997193,3.636332,244.073915,1.552979
Bus41,235.835391,-0.541580,235.943732,3.636388,244.074067,1.552976
Bus42,231.018562,-0.536728,232.431156,3.635548,241.705120,1.555538
Bus43,232.988864,-0.538749,234.076625,3.635678,242.674802,1.554495
Bus44,242.109234,-0.549122,242.626840,3.635868,247.004768,1.551094
Bus45,239.571041,-0.546259,240.840659,3.635488,246.216429,1.551903
Bus46,235.834876,-0.541582,235.990338,3.636339,244.073934,1.552979
Bus47,235.837215,-0.541573,235.778503,3.636561,244.074537,1.552966
Bus48,229.530325,-0.535178,231.187748,3.635449,240.972549,1.556332
Bus49,232.988864,-0.538749,234.076625,3.635678,242.674802,1.554495
Bus50,242.109234,-0.549122,242.626840,3.635868,247.004768,1.551094
Bus51,239.562017,-0.546249,240.840687,3.635487,246.216528,1.551903
Bus52,235.834956,-0.541582,235.983073,3.636346,244.073955,1.552978
Bus53,229.315797,-0.534953,231.008474,3.635435,240.866939,1.556447
Bus54,229.530325,-0.535178,231.187748,3.635449,240.972549,1.556332
Bus55,232.988864,-0.538749,234.076625,3.635678,242.674802,1.554495
Bus56,242.109234,-0.549122,242.626840,3.635868,247.004768,1.551094
Bus57,239.554291,-0.546241,240.840711,3.635487,246.216613,1.551904
Bus58,235.835033,-0.541581,235.976154,3.636354,244.073975,1.552978
Bus59,228.344189,-0.533928,230.196410,3.635370,240.388596,1.556969
Bus60,229.530325,-0.535178,231.187748,3.635449,240.972549,1.556332
Bus61,232.988864,-0.538749,234.076625,3.635678,242.674802,1.554495
Bus62,242.109234,-0.549122,242.626840,3.635868,247.004768,1.551094
Bus63,239.517255,-0.546203,240.840827,3.635484,246.217019,1.551905
Bus64,235.835078,-0.541581,235.972009,3.636358,244.073987,1.552978
Bus65,228.177021,-0.533749,230.028099,3.635414,240.281305,1.557036
Bus66,227.693473,-0.533225,230.198554,3.635329,240.395685,1.556995
Bus67,229.530325,-0.535178,231.187748,3.635449,240.972549,1.556332
Bus68,232.988864,-0.538749,234.076625,3.635678,242.674802,1.554495
Bus69,242.109234,-0.549122,242.626840,3.635868,247.004768,1.551094
Bus70,239.386347,-0.546068,240.841233,3.635477,246.218455,1.551910
Bus71,235.835168,-0.541581,235.963879,3.636367,244.074010,1.552977
Bus72,226.202552,-0.531611,228.039594,3.635944,239.013777,1.557841
Bus73,227.534458,-0.533052,230.199077,3.635319,240.397418,1.557002
Bus74,227.534458,-0.533052,230.199077,3.635319,240.397418,1.557002
Bus75,229.530325,-0.535178,231.187748,3.635449,240.972549,1.556332
Bus76,232.988864,-0.538749,234.076625,3.635678,242.674802,1.554495
Bus77,242.109234,-0.549122,242.626840,3.635868,247.004768,1.551094
Bus78,235.835623,-0.541579,235.922674,3.636410,244.074127,1.552975
Bus79,225.514548,-0.530857,227.346468,3.636131,238.571986,1.558123
Bus80,229.530325,-0.535178,231.187748,3.635449,240.972549,1.556332
Bus81,232.988864,-0.538749,234.076625,3.635678,242.674802,1.554495
Bus82,242.109234,-0.549122,242.626840,3.635868,247.004768,1.551094
Bus83,235.837337,-0.541573,235.767410,3.636572,244.074569,1.552965
Bus84,225.364421,-0.530692,227.195206,3.636172,238.475575,1.558185
Bus85,229.530325,-0.535178,231.187748,3.635449,240.972549,1.556332
Bus86,232.988864,-0.538749,234.076625,3.635678,242.674802,1.554495
Bus87,242.109234,-0.549122,242.626840,3.635868,247.004768,1.551094
Bus88,225.060004,-0.530357,226.888472,3.636256,238.280072,1.558310
Bus89,229.530325,-0.535178,231.187748,3.635449,240.972549,1.556332
Bus90,232.988864,-0.538749,234.076625,3.635678,242.674802,1.554495
Bus91,242.109234,-0.549122,242.626840,3.635868,247.004768,1.551094
Bus92,224.772948,-0.530039,226.599209,3.636334,238.095707,1.558429
Bus93,232.988864,-0.538749,234.076625,3.635678,242.674802,1.554495
Bus94,242.109234,-0.549122,242.626840,3.635868,247.004768,1.551094
Bus95,224.606111,-0.529854,226.431079,3.636380,237.988549,1.558498
Bus96,232.988864,-0.538749,234.076625,3.635678,242.674802,1.554495
Bus97,242.109234,-0.549122,242.626840,3.635868,247.004768,1.551094
Bus98,224.495932,-0.529732,226.320042,3.636410,237.917780,1.558543
Bus99,232.988864,-0.538749,234.076625,3.635678,242.674802,1.554495
Bus100,242.109234,-0.549122,242.626840,3.635868,247.004768,1.551094
Bus101,224.343810,-0.529563,226.166732,3.636452,237.820068,1.558606
Bus102,232.988864,-0.538749,234.076625,3.635678,242.674802,1.554495
Bus103,242.109234,-0.549122,242.626840,3.635868,247.004768,1.551094
Bus104,224.344047,-0.529563,226.162533,3.636451,237.817699,1.558598
Bus105,224.241585,-0.529463,226.086476,3.636446,237.767537,1.558670
Bus106,232.988864,-0.538749,234.076625,3.635678,242.674802,1.554495
Bus107,224.344333,-0.529563,226.157452,3.636451,237.814833,1.558587
Bus108,224.183618,-0.529406,226.040967,3.636443,237.737750,1.558707
Bus109,232.988864,-0.538749,234.076625,3.635678,242.674802,1.554495
Bus110,224.344665,-0.529564,226.151564,3.636449,237.811511,1.558575
Bus111,221.897012,-0.527142,224.245314,3.636302,236.562682,1.560155
Bus112,232.988864,-0.538749,234.076625,3.635678,242.674802,1.554495
Bus113,224.345171,-0.529564,226.142586,3.636448,237.806446,1.558557
Bus114,221.668007,-0.526913,224.065429,3.636288,236.444993,1.560301
Bus115,232.988864,-0.538749,234.076625,3.635678,242.674802,1.554495
Bus116,224.345821,-0.529564,226.131044,3.636446,237.799934,1.558534
Bus117,221.666691,-0.526922,224.056214,3.636288,236.435190,1.560280
Bus118,220.971178,-0.526469,223.592073,3.635845,236.173723,1.560622
Bus119,232.988864,-0.538749,234.076625,3.635678,242.674802,1.554495
Bus120,224.346288,-0.529564,226.122757,3.636444,237.795260,1.558517
Bus121,221.666691,-0.526922,224.056214,3.636288,236.435190,1.560280
Bus122,221.666050,-0.526927,224.051727,3.636287,236.430417,1.560270
Bus123,219.714648,-0.525661,222.738549,3.635041,235.684584,1.561205
Bus124,232.988864,-0.538749,234.076625,3.635678,242.674802,1.554495
Bus125,224.346947,-0.529564,226.111049,3.636442,237.788655,1.558494
Bus126,221.666691,-0.526922,224.056214,3.636288,236.435190,1.560280
Bus127,221.663041,-0.526948,224.030649,3.636287,236.407996,1.560223
Bus128,219.149634,-0.525295,222.354767,3.634678,235.464645,1.561467
Bus129,232.988864,-0.538749,234.076625,3.635678,242.674802,1.554495
Bus130,224.347661,-0.529564,226.098381,3.636440,237.781509,1.558468
Bus131,221.666691,-0.526922,224.056214,3.636288,236.435190,1.560280
Bus132,221.508099,-0.526776,224.031172,3.636277,236.409679,1.560229
Bus133,221.700448,-0.526991,223.965591,3.636368,236.330306,1.560031
Bus134,218.981533,-0.525185,222.240587,3.634569,235.399210,1.561546
Bus135,232.988864,-0.538749,234.076625,3.635678,242.674802,1.554495
Bus136,224.348334,-0.529564,226.086434,3.636438,237.774770,1.558444
Bus137,221.666691,-0.526922,224.056214,3.636288,236.435190,1.560280
Bus138,221.494755,-0.526761,224.031217,3.636276,236.409824,1.560230
Bus139,221.728277,-0.527023,223.917193,3.636429,236.272515,1.559888
Bus140,218.791783,-0.525062,222.111704,3.634447,235.325349,1.561634
Bus141,232.988864,-0.538749,234.076625,3.635678,242.674802,1.554495
Bus142,224.349441,-0.529564,226.066792,3.636434,237.763690,1.558404
Bus143,221.666691,-0.526922,224.056214,3.636288,236.435190,1.560280
Bus144,221.481663,-0.526746,224.031262,3.636275,236.409966,1.560230
Bus145,221.746914,-0.527045,223.884782,3.636470,236.233816,1.559793
Bus146,218.613329,-0.524945,221.990494,3.634331,235.255885,1.561717
Bus147,232.988864,-0.538749,234.076625,3.635678,242.674802,1.554495
Bus148,224.354702,-0.529565,225.973396,3.636417,237.711013,1.558215
Bus149,221.666691,-0.526922,224.056214,3.636288,236.435190,1.560280
Bus150,221.471092,-0.526735,224.031297,3.636274,236.410080,1.560231
Bus151,221.751224,-0.527126,223.897793,3.636528,236.190811,1.559777
Bus152,221.751527,-0.527027,223.471714,3.636925,236.234958,1.559767
Bus153,218.405112,-0.524809,221.849069,3.634197,235.174837,1.561814
Bus154,232.988864,-0.538749,234.076625,3.635678,242.674802,1.554495
Bus155,224.355848,-0.529566,225.953050,3.636413,237.699539,1.558174
Bus156,221.666691,-0.526922,224.056214,3.636288,236.435190,1.560280
Bus157,221.455225,-0.526717,224.031351,3.636273,236.410253,1.560232
Bus158,221.762659,-0.527339,223.932304,3.636682,236.076760,1.559736
Bus159,221.751808,-0.527026,223.446574,3.636952,236.235027,1.559766
Bus160,218.345199,-0.524770,221.808376,3.634158,235.151516,1.561842
Bus161,232.988864,-0.538749,234.076625,3.635678,242.674802,1.554495
Bus162,224.361059,-0.529546,225.485668,3.636923,237.700839,1.558146
Bus163,224.349737,-0.529609,225.909311,3.636411,237.652941,1.558076
Bus164,221.666691,-0.526922,224.056214,3.636288,236.435190,1.560280
Bus165,221.436096,-0.526696,224.031416,3.636272,236.410461,1.560232
Bus166,221.766634,-0.527414,223.944292,3.636736,236.037145,1.559722
Bus167,221.752064,-0.527025,223.423607,3.636978,236.235091,1.559764
Bus168,218.004832,-0.524547,221.577196,3.633937,235.019029,1.562001
Bus169,232.988864,-0.538749,234.076625,3.635678,242.674802,1.554495
Bus170,224.362044,-0.529542,225.397378,3.637020,237.701084,1.558140
Bus171,224.341624,-0.529668,225.851243,3.636409,237.591081,1.557947
Bus172,221.666691,-0.526922,224.056214,3.636288,236.435190,1.560280
Bus173,221.421645,-0.526679,224.031464,3.636271,236.410617,1.560233
Bus174,221.766634,-0.527414,223.944292,3.636736,236.037145,1.559722
Bus175,221.767568,-0.527435,223.947741,3.636750,235.716407,1.560056
Bus176,221.752171,-0.527025,223.414066,3.636988,236.235117,1.559764
Bus177,217.812595,-0.524420,221.446629,3.633812,234.944203,1.562091
Bus178,224.364075,-0.529534,225.215225,3.637220,237.701591,1.558129
Bus179,224.338833,-0.529651,225.837174,3.636390,237.594812,1.557930
Bus180,224.342161,-0.529679,225.853222,3.636417,237.407304,1.558137
Bus181,221.666691,-0.526922,224.056214,3.636288,236.435190,1.560280
Bus182,221.404922,-0.526661,224.031521,3.636270,236.410799,1.560234
Bus183,221.766634,-0.527414,223.944292,3.636736,236.037145,1.559722
Bus184,221.767669,-0.527437,223.948114,3.636752,235.681769,1.560093
Bus185,221.752400,-0.527024,223.393501,3.637011,236.235174,1.559763
Bus186,217.669895,-0.524326,221.349708,3.633720,234.888658,1.562157
Bus187,224.327851,-0.529586,225.781807,3.636314,237.609496,1.557864
Bus188,224.344384,-0.529728,225.861410,3.636451,236.646781,1.558928
Bus189,221.666691,-0.526922,224.056214,3.636288,236.435190,1.560280
Bus190,221.389198,-0.526643,224.031574,3.636269,236.410970,1.560234
Bus191,221.766634,-0.527414,223.944292,3.636736,236.037145,1.559722
Bus192,221.766634,-0.527414,223.944292,3.636736,236.037145,1.559722
Bus193,221.767767,-0.527439,223.948474,3.636753,235.648264,1.560128
Bus194,221.752985,-0.527022,223.341123,3.637069,236.235319,1.559759
Bus195,217.541602,-0.524242,221.262572,3.633636,234.838722,1.562217
Bus196,224.308245,-0.529471,225.682955,3.636178,237.635715,1.557747
Bus197,224.344601,-0.529733,225.862210,3.636454,236.572477,1.559005
Bus198,224.344510,-0.529731,225.861872,3.636453,236.603827,1.558972
Bus199,221.666691,-0.526922,224.056214,3.636288,236.435190,1.560280
Bus200,221.372280,-0.526624,224.031631,3.636268,236.411154,1.560235
...
SourceBus_1,6634.610475,-0.007370,6638.585118,4.183146,6646.511993,2.087370
LOAD1,239.438657,-0.546122,240.841070,3.635480,246.217881,1.551908
LOAD2,235.837215,-0.541573,235.778503,3.636561,244.074537,1.552966
LOAD3,239.386347,-0.546068,240.841233,3.635477,246.218455,1.551910
LOAD4,227.534458,-0.533052,230.199077,3.635319,240.397418,1.557002
LOAD5,227.534458,-0.533052,230.199077,3.635319,240.397418,1.557002
LOAD6,235.837337,-0.541573,235.767410,3.636572,244.074569,1.552965
LOAD7,224.364075,-0.529534,225.215225,3.637220,237.701591,1.558129
LOAD8,224.345150,-0.529745,225.864233,3.636462,236.384624,1.559201
LOAD9,223.568115,-0.528656,225.685431,3.636131,237.643752,1.557777
LOAD10,224.352006,-0.529295,224.289055,3.637568,237.648365,1.557505
LOAD11,224.352006,-0.529295,224.289055,3.637568,237.648365,1.557505
LOAD12,224.345298,-0.529748,225.864774,3.636465,236.334332,1.559254
LOAD13,221.760064,-0.526994,222.707363,3.637770,236.237072,1.559721
LOAD14,221.081326,-0.526300,224.032614,3.636249,236.414313,1.560247
LOAD15,221.759127,-0.526998,222.791251,3.637677,236.236839,1.559726
LOAD16,221.769737,-0.527483,223.955749,3.636783,234.971828,1.560837
LOAD17,221.769315,-0.527473,223.954193,3.636777,235.116564,1.560685
LOAD18,212.109889,-0.517788,217.650770,3.628929,233.501367,1.565165
LOAD19,215.597052,-0.522993,219.887938,3.632488,233.452541,1.563674
LOAD20,212.433807,-0.518979,218.558074,3.629977,233.935396,1.564318
LOAD21,215.692611,-0.522726,220.418830,3.632783,234.360526,1.562827
LOAD22,212.293200,-0.518815,218.558577,3.629968,233.936918,1.564324
LOAD23,211.352836,-0.515932,216.363793,3.628671,234.218611,1.564659
LOAD24,214.227449,-0.522113,218.553428,3.632269,232.308227,1.564141
LOAD25,204.206042,-0.502921,213.695917,3.619438,235.697079,1.567453
LOAD26,211.774045,-0.518223,214.610164,3.632149,231.908708,1.561888
LOAD27,213.708663,-0.521711,217.855103,3.632438,231.620860,1.564228
LOAD28,213.709135,-0.521722,217.856848,3.632446,231.457395,1.564402
LOAD29,203.705867,-0.500657,212.478900,3.619577,235.705813,1.566449
LOAD30,204.255723,-0.502981,213.695721,3.619441,235.696548,1.567451
LOAD31,203.718135,-0.500672,212.478851,3.619578,235.705682,1.566448
LOAD32,211.123168,-0.517592,214.463826,3.631267,231.122846,1.562585
LOAD33,205.487817,-0.501456,211.237347,3.622057,234.681842,1.564846
LOAD34,205.939394,-0.506295,214.613176,3.621088,235.405324,1.567137
LOAD35,205.595746,-0.500943,210.173573,3.623232,235.276267,1.563656
LOAD36,205.404594,-0.501194,209.987582,3.623097,235.436809,1.564396
LOAD37,205.404929,-0.501192,209.958590,3.623131,235.436881,1.564395
LOAD38,210.328854,-0.516472,213.197047,3.631151,231.532655,1.562085
LOAD39,209.710455,-0.515873,213.024318,3.630441,230.260808,1.562923
LOAD40,209.290087,-0.514531,211.596621,3.630802,231.137353,1.561369
LOAD41,208.287036,-0.510814,208.531353,3.632410,230.706880,1.559668
LOAD42,209.710553,-0.515875,213.024692,3.630443,230.225706,1.562960
LOAD43,207.655924,-0.510359,209.171876,3.631346,229.051190,1.561309
LOAD44,211.541656,-0.517906,214.131605,3.632276,231.820199,1.561844
LOAD45,208.286536,-0.510816,208.575321,3.632358,230.706761,1.559671
LOAD46,207.677792,-0.513441,213.632054,3.630057,231.512441,1.562355
LOAD47,207.655770,-0.510355,209.171260,3.631343,229.108808,1.561247
LOAD48,207.780252,-0.513563,213.631679,3.630063,231.511339,1.562351
LOAD49,207.577645,-0.513322,213.632420,3.630050,231.513517,1.562360
LOAD50,207.160185,-0.505981,205.847462,3.632624,230.769047,1.557688
LOAD51,207.256631,-0.511241,211.310825,3.629510,231.100907,1.561304
LOAD52,205.582489,-0.505793,208.080453,3.630055,230.686680,1.559419
LOAD53,207.160185,-0.505981,205.761606,3.632730,230.769047,1.557688
LOAD54,206.977768,-0.510909,211.311856,3.629492,231.103895,1.561316
LOAD55,205.554647,-0.505702,208.085438,3.629964,230.700802,1.559477
